Version 4
SHEET 1 2520 1008
WIRE -432 -32 -432 -96
WIRE -640 64 -640 -16
WIRE 1728 176 432 176
WIRE 1936 304 1824 304
WIRE 1728 336 1728 176
WIRE 1824 336 1824 304
WIRE 1824 336 1808 336
WIRE 1856 336 1824 336
WIRE 1936 384 1936 304
WIRE 2320 384 1936 384
WIRE 432 432 432 176
WIRE 1824 448 1824 416
WIRE 1824 448 1760 448
WIRE 2096 448 1824 448
WIRE 2240 448 2160 448
WIRE 1760 544 1760 448
WIRE 1760 656 1760 608
WIRE 1760 656 1744 656
WIRE 1840 656 1760 656
WIRE 448 688 448 480
WIRE 1232 688 448 688
WIRE 1296 688 1232 688
WIRE 1376 704 1360 704
WIRE 1440 704 1376 704
WIRE 1744 704 1744 656
WIRE 1744 704 1520 704
WIRE 1232 864 1232 688
WIRE 1296 864 1232 864
WIRE 1376 864 1376 704
WIRE 1376 864 1360 864
FLAG -640 -16 Vss
FLAG -640 64 0
FLAG -864 64 0
FLAG -864 -16 Vdd
FLAG -432 -96 Vcm
FLAG -432 48 0
FLAG -272 -64 Vbias
FLAG -272 16 0
FLAG 1824 240 0
FLAG 1856 336 Vout
FLAG 1840 736 0
FLAG 1328 656 0
FLAG 1328 720 Vdd
FLAG 1360 672 Vref
FLAG -320 272 Vref
FLAG -320 352 0
FLAG 2320 448 0
FLAG 496 480 0
FLAG 512 432 0
SYMBOL voltage -864 -32 R0
WINDOW 123 0 0 Left 0
WINDOW 39 0 0 Left 0
SYMATTR InstName VIN
SYMATTR Value 5
SYMBOL voltage -432 -48 R0
WINDOW 123 0 0 Left 0
WINDOW 39 0 0 Left 0
SYMATTR InstName V3
SYMATTR Value 2.5
SYMBOL voltage -272 -80 R0
WINDOW 123 0 0 Left 0
WINDOW 39 0 0 Left 0
SYMATTR InstName V4
SYMATTR Value 2.5
SYMBOL ind 1824 320 R90
WINDOW 0 5 56 VBottom 2
WINDOW 3 48 56 VTop 2
SYMATTR InstName L1
SYMATTR Value 100µ
SYMBOL cap 1808 240 R0
SYMATTR InstName C111
SYMATTR Value 47µ
SYMBOL res 1824 640 R0
SYMATTR InstName RSense
SYMATTR Value 5
SYMBOL res 1536 688 R90
WINDOW 0 0 56 VBottom 2
WINDOW 3 32 56 VTop 2
SYMATTR InstName RComp
SYMATTR Value 10k
SYMBOL cap 1360 848 R90
WINDOW 0 0 32 VBottom 2
WINDOW 3 32 32 VTop 2
SYMATTR InstName CComp
SYMATTR Value 22µ
SYMBOL Opamps\\UniversalOpamp2 1328 688 R180
SYMATTR InstName U4
SYMBOL voltage -320 256 R0
WINDOW 123 24 124 Left 2
WINDOW 39 0 0 Left 0
WINDOW 3 24 44 Left 2
SYMATTR Value 50m
SYMATTR InstName V1
SYMBOL res 1376 944 R90
WINDOW 0 0 56 VBottom 2
WINDOW 3 32 56 VTop 2
SYMATTR InstName R4
SYMATTR Value 1G
SYMBOL ind 1808 320 R0
SYMATTR InstName L2
SYMATTR Value 1Meg
SYMBOL cap 2096 464 R270
WINDOW 0 32 32 VTop 2
WINDOW 3 0 32 VBottom 2
SYMATTR InstName C4
SYMATTR Value 1Meg
SYMBOL voltage 2224 448 R270
WINDOW 0 32 56 VTop 2
WINDOW 3 -88 56 VBottom 2
WINDOW 123 -60 56 VBottom 2
WINDOW 39 0 0 Left 0
SYMATTR InstName V2
SYMATTR Value ""
SYMATTR Value2 AC 1 0
SYMBOL WL-TMRW 1760 592 R0
SYMATTR InstName U5
SYMBOL e 416 432 R270
SYMATTR InstName E1
SYMATTR Value 5
TEXT -672 176 Left 2 !;tran 0 5s 0
TEXT -784 -168 Left 2 ;ic V(Vmid) 2.5
TEXT 2104 664 Left 2 !.ac oct 100 1m 100k
TEXT 1992 888 Left 2 !;tran 0 20m 0
