Version 4
SHEET 1 2520 1008
WIRE 624 -128 -32 -128
WIRE -432 -32 -432 -96
WIRE 528 16 400 16
WIRE 624 16 624 -128
WIRE 624 16 608 16
WIRE 96 48 80 48
WIRE 208 48 160 48
WIRE 1728 48 1648 48
WIRE -640 64 -640 -16
WIRE 1840 64 1776 64
WIRE 624 128 624 16
WIRE 624 128 544 128
WIRE 992 128 816 128
WIRE 1408 128 1376 128
WIRE 1584 128 1408 128
WIRE 1680 128 1584 128
WIRE 400 144 400 16
WIRE 400 144 352 144
WIRE 480 144 400 144
WIRE 1312 144 1056 144
WIRE 992 160 944 160
WIRE 1680 160 1680 128
WIRE 1840 160 1840 64
WIRE 1840 160 1680 160
WIRE -32 176 -32 -128
WIRE 80 176 80 48
WIRE 80 176 48 176
WIRE 96 176 80 176
WIRE 208 192 208 48
WIRE 208 192 160 192
WIRE 272 192 272 144
WIRE 272 192 208 192
WIRE 944 224 944 160
WIRE 976 224 944 224
WIRE 1440 288 1104 288
WIRE 272 304 272 192
WIRE 336 304 272 304
WIRE 480 304 400 304
WIRE 976 304 976 224
WIRE 1040 304 1040 288
WIRE 1040 304 976 304
WIRE 1936 304 1824 304
WIRE 752 320 544 320
WIRE 816 320 816 128
WIRE 816 320 752 320
WIRE 1728 336 1728 144
WIRE 1824 336 1824 304
WIRE 1824 336 1808 336
WIRE 1856 336 1824 336
WIRE 1440 352 1440 288
WIRE 816 368 816 320
WIRE 1936 384 1936 304
WIRE 2320 384 1936 384
WIRE 1008 416 976 416
WIRE 1408 416 1408 128
WIRE 1408 416 1136 416
WIRE 1824 448 1824 416
WIRE 1824 448 1760 448
WIRE 2096 448 1824 448
WIRE 2240 448 2160 448
WIRE 1728 464 1728 336
WIRE 1728 464 1536 464
WIRE 480 480 480 336
WIRE 480 480 448 480
WIRE 976 544 976 416
WIRE 1072 544 976 544
WIRE 1440 544 1440 352
WIRE 1440 544 1408 544
WIRE 1488 544 1440 544
WIRE 1760 544 1760 448
WIRE 1072 560 1024 560
WIRE 1248 560 1136 560
WIRE 1344 560 1312 560
WIRE 1024 576 1024 560
WIRE 1024 576 976 576
WIRE 1440 576 1440 544
WIRE 816 624 816 432
WIRE 976 624 976 576
WIRE 976 624 816 624
WIRE 1760 656 1760 608
WIRE 1760 656 1744 656
WIRE 1840 656 1760 656
WIRE 448 688 448 480
WIRE 1232 688 448 688
WIRE 1296 688 1232 688
WIRE 1376 704 1360 704
WIRE 1440 704 1376 704
WIRE 1744 704 1744 656
WIRE 1744 704 1520 704
WIRE 1232 864 1232 688
WIRE 1280 864 1232 864
WIRE 1296 864 1280 864
WIRE 1376 864 1376 704
WIRE 1376 864 1360 864
WIRE 1280 960 1280 864
WIRE 1360 960 1360 864
FLAG 128 224 Vss
FLAG 512 160 Vss
FLAG -640 -16 Vss
FLAG 96 208 Vcm
FLAG 480 112 Vcm
FLAG -640 64 0
FLAG -864 64 0
FLAG 624 128 VO
FLAG 208 192 Vmid
FLAG 512 96 Vdd
FLAG 128 160 Vdd
FLAG -864 -16 Vdd
FLAG -432 -96 Vcm
FLAG -432 48 0
FLAG 400 384 Vbias
FLAG -272 -64 Vbias
FLAG -272 16 0
FLAG 512 288 Vdd
FLAG 512 352 0
FLAG 752 320 VPWM
FLAG 912 304 0
FLAG 912 416 0
FLAG 1536 560 0
FLAG 1648 48 Vdd
FLAG 1440 352 V_Gate_N
FLAG 1584 128 V_Gate_P
FLAG 1824 240 0
FLAG 1856 336 Vout
FLAG 1840 736 0
FLAG 1328 656 0
FLAG 1328 720 Vdd
FLAG 1360 672 Vref
FLAG -320 272 Vref
FLAG -320 352 0
FLAG 2320 448 0
DATAFLAG 432 304 ""
DATAFLAG 272 192 ""
SYMBOL Opamps\\UniversalOpamp2 128 192 R0
SYMATTR InstName U1
SYMBOL res 64 160 R90
WINDOW 0 0 56 VBottom 2
WINDOW 3 32 56 VTop 2
SYMATTR InstName R
SYMATTR Value 5k
SYMBOL res 368 128 R90
WINDOW 0 0 56 VBottom 2
WINDOW 3 32 56 VTop 2
SYMATTR InstName R1
SYMATTR Value 1k
SYMBOL res 624 0 R90
WINDOW 0 0 56 VBottom 2
WINDOW 3 32 56 VTop 2
SYMATTR InstName R2
SYMATTR Value 5k
SYMBOL cap 160 32 R90
WINDOW 0 0 32 VBottom 2
WINDOW 3 32 32 VTop 2
SYMATTR InstName C
SYMATTR Value 2.5n
SYMBOL voltage -864 -32 R0
WINDOW 123 0 0 Left 0
WINDOW 39 0 0 Left 0
SYMATTR InstName VIN
SYMATTR Value 5
SYMBOL voltage -432 -48 R0
WINDOW 123 0 0 Left 0
WINDOW 39 0 0 Left 0
SYMATTR InstName V3
SYMATTR Value 2.5
SYMBOL Comparators\\LTC6752 512 64 R0
SYMATTR InstName U3
SYMBOL cap 400 288 R90
WINDOW 0 0 32 VBottom 2
WINDOW 3 32 32 VTop 2
SYMATTR InstName C1
SYMATTR Value 1µ
SYMBOL res 384 288 R0
SYMATTR InstName R3
SYMATTR Value 1K
SYMBOL voltage -272 -80 R0
WINDOW 123 0 0 Left 0
WINDOW 39 0 0 Left 0
SYMATTR InstName V4
SYMATTR Value 2.5
SYMBOL Comparators\\LTC6752 512 256 R0
SYMATTR InstName U2
SYMBOL cap 976 288 R90
WINDOW 0 0 32 VBottom 2
WINDOW 3 32 32 VTop 2
SYMATTR InstName C2
SYMATTR Value 50p
SYMBOL cap 976 400 R90
WINDOW 0 0 32 VBottom 2
WINDOW 3 32 32 VTop 2
SYMATTR InstName C3
SYMATTR Value 50p
SYMBOL Digital\\inv 880 368 R90
WINDOW 3 0 0 Invisible 0
SYMATTR Value Vhigh=5 Vlow=0
SYMATTR InstName A1
SYMATTR Value2 Trise=5n Tfall=5n Td=5n
SYMBOL Digital\\and 1024 64 R0
WINDOW 3 -35 -179 Invisible 2
SYMATTR Value Vhigh=5 Vlow=0
SYMATTR InstName A6
SYMATTR Value2 Trise=50n Tfall=50n Td=50n
SYMBOL Digital\\and 1104 480 R0
WINDOW 3 -4 207 Invisible 2
SYMATTR Value Vhigh=5 Vlow=0
SYMATTR InstName A7
SYMATTR Value2 Trise=50n Tfall=50n Td=50n
SYMBOL Digital\\buf 1312 80 R0
WINDOW 3 5 -233 Invisible 2
SYMATTR Value Vhigh=5 Vlow=0
SYMATTR InstName A8
SYMATTR Value2 Trise=50n Tfall=50n Td=50n
SYMBOL Digital\\buf 1344 496 R0
WINDOW 3 84 202 Invisible 2
SYMATTR Value Vhigh=5 Vlow=0
SYMATTR InstName A9
SYMATTR Value2 Trise=50n Tfall=50n Td=50n
SYMBOL pmos 1776 144 R180
SYMATTR InstName M1
SYMATTR Value FDR840P
SYMBOL nmos 1488 464 R0
SYMATTR InstName M2
SYMATTR Value HAT2160H
SYMBOL ind 1824 320 R90
WINDOW 0 5 56 VBottom 2
WINDOW 3 48 56 VTop 2
SYMATTR InstName L1
SYMATTR Value 100µ
SYMBOL cap 1808 240 R0
SYMATTR InstName C111
SYMATTR Value 47µ
SYMBOL Digital\\inv 1104 352 R180
WINDOW 3 0 0 Invisible 0
SYMATTR Value Vhigh=5 Vlow=0
SYMATTR InstName A2
SYMATTR Value2 Trise=50n Tfall=50n Td=50n
SYMBOL Digital\\inv 1072 480 R180
WINDOW 3 0 0 Invisible 0
SYMATTR Value Vhigh=5 Vlow=0
SYMATTR InstName A3
SYMATTR Value2 Trise=50n Tfall=50n Td=50n
SYMBOL Digital\\inv 1136 480 R180
WINDOW 3 0 0 Invisible 0
SYMATTR Value Vhigh=5 Vlow=0
SYMATTR InstName A4
SYMATTR Value2 Trise=50n Tfall=50n Td=50n
SYMBOL Digital\\inv 1248 496 R0
WINDOW 3 0 0 Invisible 0
SYMATTR Value Vhigh=5 Vlow=0
SYMATTR InstName A5
SYMATTR Value2 Trise=50n Tfall=50n Td=50n
SYMBOL res 1824 640 R0
SYMATTR InstName RSense
SYMATTR Value 5
SYMBOL res 1536 688 R90
WINDOW 0 0 56 VBottom 2
WINDOW 3 32 56 VTop 2
SYMATTR InstName RComp
SYMATTR Value 10k
SYMBOL cap 1360 848 R90
WINDOW 0 0 32 VBottom 2
WINDOW 3 32 32 VTop 2
SYMATTR InstName CComp
SYMATTR Value 220p
SYMBOL Opamps\\UniversalOpamp2 1328 688 R180
SYMATTR InstName U4
SYMBOL voltage -320 256 R0
WINDOW 123 24 124 Left 2
WINDOW 39 0 0 Left 0
WINDOW 3 24 44 Left 2
SYMATTR Value 50m
SYMATTR InstName V1
SYMBOL res 1376 944 R90
WINDOW 0 0 56 VBottom 2
WINDOW 3 32 56 VTop 2
SYMATTR InstName R4
SYMATTR Value 1G
SYMBOL ind 1808 320 R0
SYMATTR InstName L2
SYMATTR Value 1Meg
SYMBOL cap 2096 464 R270
WINDOW 0 32 32 VTop 2
WINDOW 3 0 32 VBottom 2
SYMATTR InstName C4
SYMATTR Value 1Meg
SYMBOL voltage 2224 448 R270
WINDOW 0 32 56 VTop 2
WINDOW 3 -88 56 VBottom 2
WINDOW 123 -60 56 VBottom 2
WINDOW 39 0 0 Left 0
SYMATTR InstName V2
SYMATTR Value ""
SYMATTR Value2 AC 1 0
SYMBOL LED 1744 544 R0
SYMATTR InstName D1
TEXT -672 176 Left 2 !;tran 0 5s 0
TEXT -784 -168 Left 2 ;ic V(Vmid) 2.5
TEXT 2104 664 Left 2 !.ac dec 100 1n 100k
