Version 4
SHEET 1 2520 716
WIRE 624 -128 -32 -128
WIRE -432 -32 -432 -96
WIRE 528 16 400 16
WIRE 624 16 624 -128
WIRE 624 16 608 16
WIRE 96 48 80 48
WIRE 208 48 160 48
WIRE 1728 48 1648 48
WIRE -640 64 -640 -16
WIRE 1840 64 1776 64
WIRE 624 128 624 16
WIRE 624 128 544 128
WIRE 992 128 816 128
WIRE 1408 128 1376 128
WIRE 1584 128 1408 128
WIRE 1680 128 1584 128
WIRE 400 144 400 16
WIRE 400 144 352 144
WIRE 480 144 400 144
WIRE 1312 144 1056 144
WIRE 992 160 944 160
WIRE 1680 160 1680 128
WIRE 1840 160 1840 64
WIRE 1840 160 1680 160
WIRE -32 176 -32 -128
WIRE 80 176 80 48
WIRE 80 176 48 176
WIRE 96 176 80 176
WIRE 208 192 208 48
WIRE 208 192 160 192
WIRE 272 192 272 144
WIRE 272 192 208 192
WIRE 944 224 944 160
WIRE 976 224 944 224
WIRE 1440 288 1104 288
WIRE 272 304 272 192
WIRE 336 304 272 304
WIRE 480 304 400 304
WIRE 976 304 976 224
WIRE 1040 304 1040 288
WIRE 1040 304 976 304
WIRE 752 320 544 320
WIRE 816 320 816 128
WIRE 816 320 752 320
WIRE 1728 336 1728 144
WIRE 1856 336 1808 336
WIRE 1904 336 1904 288
WIRE 1904 336 1856 336
WIRE 1440 352 1440 288
WIRE 320 368 64 368
WIRE 816 368 816 320
WIRE 1008 416 976 416
WIRE 1408 416 1408 128
WIRE 1408 416 1136 416
WIRE 1728 464 1728 336
WIRE 1728 464 1536 464
WIRE 320 480 320 368
WIRE 480 480 480 336
WIRE 480 480 320 480
WIRE 976 544 976 416
WIRE 1072 544 976 544
WIRE 1440 544 1440 352
WIRE 1440 544 1408 544
WIRE 1488 544 1440 544
WIRE 1072 560 1024 560
WIRE 1248 560 1136 560
WIRE 1344 560 1312 560
WIRE 1024 576 1024 560
WIRE 1024 576 976 576
WIRE 1440 576 1440 544
WIRE 816 624 816 432
WIRE 976 624 976 576
WIRE 976 624 816 624
FLAG 128 224 Vss
FLAG 512 160 Vss
FLAG -640 -16 Vss
FLAG 96 208 Vcm
FLAG 480 112 Vcm
FLAG -640 64 0
FLAG -864 64 0
FLAG 624 128 VO
FLAG 208 192 Vmid
FLAG 512 96 Vdd
FLAG 128 160 Vdd
FLAG -864 -16 Vdd
FLAG -432 -96 Vcm
FLAG -432 48 0
FLAG 400 384 Vbias
FLAG -272 -64 Vbias
FLAG -272 16 0
FLAG 512 288 Vdd
FLAG 512 352 0
FLAG 64 368 VCtrl
FLAG -336 240 VCtrl
FLAG -336 320 0
FLAG 752 320 VPWM
FLAG 912 304 0
FLAG 912 416 0
FLAG 1536 560 0
FLAG 1648 48 Vdd
FLAG 1440 352 V_Gate_N
FLAG 1584 128 V_Gate_P
FLAG 1904 400 0
FLAG 1856 336 Vout
DATAFLAG 432 304 ""
DATAFLAG 272 192 ""
SYMBOL Opamps\\UniversalOpamp2 128 192 R0
SYMATTR InstName U1
SYMBOL res 64 160 R90
WINDOW 0 0 56 VBottom 2
WINDOW 3 32 56 VTop 2
SYMATTR InstName R
SYMATTR Value 5k
SYMBOL res 368 128 R90
WINDOW 0 0 56 VBottom 2
WINDOW 3 32 56 VTop 2
SYMATTR InstName R1
SYMATTR Value 1k
SYMBOL res 624 0 R90
WINDOW 0 0 56 VBottom 2
WINDOW 3 32 56 VTop 2
SYMATTR InstName R2
SYMATTR Value 5k
SYMBOL cap 160 32 R90
WINDOW 0 0 32 VBottom 2
WINDOW 3 32 32 VTop 2
SYMATTR InstName C
SYMATTR Value 2.5n
SYMBOL voltage -864 -32 R0
WINDOW 123 0 0 Left 0
WINDOW 39 0 0 Left 0
SYMATTR InstName VIN
SYMATTR Value 5
SYMBOL voltage -432 -48 R0
WINDOW 123 0 0 Left 0
WINDOW 39 0 0 Left 0
SYMATTR InstName V3
SYMATTR Value 2.5
SYMBOL Comparators\\LTC6752 512 64 R0
SYMATTR InstName U3
SYMBOL cap 400 288 R90
WINDOW 0 0 32 VBottom 2
WINDOW 3 32 32 VTop 2
SYMATTR InstName C1
SYMATTR Value 1µ
SYMBOL res 384 288 R0
SYMATTR InstName R3
SYMATTR Value 1K
SYMBOL voltage -272 -80 R0
WINDOW 123 0 0 Left 0
WINDOW 39 0 0 Left 0
SYMATTR InstName V4
SYMATTR Value 2.5
SYMBOL Comparators\\LTC6752 512 256 R0
SYMATTR InstName U2
SYMBOL voltage -336 224 R0
WINDOW 123 0 0 Left 0
WINDOW 39 0 0 Left 0
SYMATTR InstName V5
SYMATTR Value {V5}
SYMBOL cap 976 288 R90
WINDOW 0 0 32 VBottom 2
WINDOW 3 32 32 VTop 2
SYMATTR InstName C2
SYMATTR Value 10µ
SYMBOL cap 976 400 R90
WINDOW 0 0 32 VBottom 2
WINDOW 3 32 32 VTop 2
SYMATTR InstName C3
SYMATTR Value 10µ
SYMBOL Digital\\inv 880 368 R90
WINDOW 3 0 0 Invisible 0
SYMATTR Value Vhigh=5 Vlow=0
SYMATTR InstName A1
SYMATTR Value2 Trise=5n Tfall=5n Td=5n
SYMBOL Digital\\and 1024 64 R0
WINDOW 3 -35 -179 Invisible 2
SYMATTR Value Vhigh=5 Vlow=0
SYMATTR InstName A6
SYMBOL Digital\\and 1104 480 R0
WINDOW 3 -4 207 Invisible 2
SYMATTR Value Vhigh=5 Vlow=0
SYMATTR InstName A7
SYMBOL Digital\\buf 1312 80 R0
WINDOW 3 5 -233 Invisible 2
SYMATTR Value Vhigh=5 Vlow=0
SYMATTR InstName A8
SYMBOL Digital\\buf 1344 496 R0
WINDOW 3 84 202 Invisible 2
SYMATTR Value Vhigh=5 Vlow=0
SYMATTR InstName A9
SYMBOL pmos 1776 144 R180
SYMATTR InstName M1
SYMBOL nmos 1488 464 R0
SYMATTR InstName M2
SYMBOL ind 1824 320 R90
WINDOW 0 5 56 VBottom 2
WINDOW 3 48 56 VTop 2
SYMATTR InstName L1
SYMATTR Value 100µ
SYMBOL cap 1888 336 R0
SYMATTR InstName C111
SYMATTR Value 20n
SYMBOL Digital\\inv 1104 352 R180
WINDOW 3 0 0 Invisible 0
SYMATTR Value Vhigh=5 Vlow=0
SYMATTR InstName A2
SYMATTR Value2 Trise=5n Tfall=5n Td=5n
SYMBOL Digital\\inv 1072 480 R180
WINDOW 3 0 0 Invisible 0
SYMATTR Value Vhigh=5 Vlow=0
SYMATTR InstName A3
SYMATTR Value2 Trise=5n Tfall=5n Td=5n
SYMBOL Digital\\inv 1136 480 R180
WINDOW 3 0 0 Invisible 0
SYMATTR Value Vhigh=5 Vlow=0
SYMATTR InstName A4
SYMATTR Value2 Trise=5n Tfall=5n Td=5n
SYMBOL Digital\\inv 1248 496 R0
WINDOW 3 0 0 Invisible 0
SYMATTR Value Vhigh=5 Vlow=0
SYMATTR InstName A5
SYMATTR Value2 Trise=5n Tfall=5n Td=5n
TEXT -672 176 Left 2 !.tran 0 2m 0
TEXT -784 -168 Left 2 ;ic V(Vmid) 2.5
TEXT 2096 368 Left 2 !.ic V(Vout)=2
TEXT -112 520 Left 2 !.step param V5 2 3 0.25
